[TITLE]

[JUNCTIONS]
 J411                                  8.9500
 J414                                 34.3600
 J417                                 37.3800
 J314                                 14.9400
 J211                                 11.2700
 J212                                  7.8700
 J214                                  8.6700
 J217                                 10.9800
 J218                                  7.6800
 J110                                 15.9200
 J421                                 37.0900
 J1153                                22.1400
 J1154                                14.6100
 J1155                                15.5400
 J1157                                22.2100
 J1056                                 7.6400
 J431                                 16.9000
 J432                                 19.8800
 J433                                 27.3500
 J434                                 16.4800
 J435                                 12.1500
 J438                                 10.4300
 J336                                 23.8100
 J337                                 22.1100
 J341                                 14.8900
 J154                                 43.6900
 J155                                 44.4100
 J156                                 56.1600
 J159                                 37.4100
 J160                                 43.6900
 J177                                 13.1400
 J179                                 15.0100
 J1025                                 8.6100
 J408                                  7.9300
 J192                                 12.4000
 J194                                 13.4600
 J196                                 13.3500
 J308                                 33.2400
 J199                                 16.2600
 J201                                 44.8600
 J202                                 10.4100
 J203                                 11.0300
 J204                                 21.5100
 J208                                 11.2500
 J109                                 17.4700
 J11                                  18.4300
 J12                                  29.2700
 J13                                  32.0400
 J24                                  34.5300
 J39                                  45.8800
 J269                                 56.0000
 J273                                 56.0000
 J274                                 56.0000
 J276                                 56.0000
 J280                                 56.0000
 J285                                 56.0000

[RESERVOIRS]
 R1                                   59.0000 

[TANKS]
 T1                                   71.5000       3.0000       0.0000       6.5000      31.3000       0.0000 

[PIPES]
 P100                            J159                            J160                                107.8800     406.0000      76.5142       0.0000 
 P1000                           J341                            J204                                109.2700     203.0000      76.9461       0.0000 
 P102                            J109                            J408                               1280.3000     508.0000      92.9472       0.0000 
 P110                            J179                            J177                                425.8300     508.0000      98.9941       0.0000 
 P115                            J408                            J435                                 99.8800     102.0000      91.2315       0.0000 
 P117                            J435                            J431                                104.0000     102.0000      67.9620       0.0000 
 P118                            J431                            J432                                115.9100     102.0000      84.6653       0.0000 
 P12                             J208                            J337                                 85.2400     406.0000      89.6626       0.0000 
 P13                             J337                            J24                                  62.5600     406.0000      83.0438       0.0000 
 P138                            J203                            J217                                 19.2800     254.0000      72.4853       0.0000 
 P139                            J208                            J211                                 73.6600     406.0000      68.7185       0.0000 
 P14                             J24                             J39                                 151.3900     406.0000      72.0091       0.0000 
 P15                             J39                             T1                                  395.2900     406.0000      90.4830       0.0000 
 P159                            J204                            J336                                118.7800     203.0000      80.1472       0.0000 
 P17                             J408                            J1025                                32.4200     508.0000      77.2813       0.0000 
 P18                             J1025                           J411                                283.3000     508.0000     100.3000       0.0000 
 P19                             J411                            J1056                               750.8700     508.0000      97.7000       0.0000 
 P20                             J1056                           J214                                579.6700     508.0000      89.6725       0.0000 
 P21                             J214                            J212                                176.4800     406.0000      86.6937       0.0000 
 P22                             J159                            J192                                567.3000     406.0000      81.1136       0.0000 
 P23                             J192                            J196                                316.9100     508.0000      77.1626       0.0000 
 P235                            J336                            J337                                 92.7400      76.0000      84.3219       0.0000 
 P24                             J177                            J194                                 71.0500     508.0000      88.6208       0.0000 
 P25                             J196                            J194                                  4.3000     508.0000      74.3773       0.0000 
 P296                            J432                            J433                                231.8700      76.0000      82.9572       0.0000 
 P297                            J411                            J438                                 42.5300     406.0000      73.0000       0.0000 
 P298                            J438                            J434                                 40.1100     305.0000      84.5511       0.0000 
 P301                            J434                            J11                                  45.3100     305.0000      85.1892       0.0000 
 P302                            J11                             J433                                178.2800     305.0000      80.3402       0.0000 
 P307                            J433                            J12                                  47.3000     305.0000      60.5122       0.0000 
 P310                            J269                            J156                                  9.0000     610.0000      87.2680       0.0000 
 P316                            R1                              J280                                 11.6200     610.0000      70.4519       0.0000 
 P319                            J274                            J269                                 10.5400     610.0000      76.5927       0.0000 
 P320                            J273                            J269                                 11.4700     610.0000      76.5188       0.0000 
 P322                            J280                            J285                                 11.5000     610.0000      89.4331       0.0000 
 P323                            J280                            J276                                 11.4700     610.0000      84.6872       0.0000 
 P34                             J179                            J110                                 98.0000     508.0000      78.5060       0.0000 
 P443                            J13                             J12                                  67.3100     305.0000      85.5760       0.0000 
 P445                            J417                            J421                                  7.8000     254.0000      86.2106       0.0000 
 P484                            J438                            J13                                 336.5700     203.0000      79.9800       0.0000 
 P7                              J218                            J211                                 60.2200     508.0000      78.4537       0.0000 
 P8                              J218                            J212                                 11.3500     406.0000      76.0774       0.0000 
 P819                            J1153                           J1157                                 8.0200     203.0000     105.0733       0.0000 
 P83                             J155                            J160                                 15.1400     610.0000      75.6638       0.0000 
 P892                            J414                            J13                                  30.3900     254.0000      69.8485       0.0000 
 P9                              J212                            J217                                 49.9500     254.0000      66.7492       0.0000 
 P96                             J414                            J417                                 53.7200     254.0000      87.9028       0.0000 
 P97                             J154                            J155                                 24.4100     610.0000      88.8953       0.0000 
 P970                            J1154                           J199                                165.0400     203.0000      87.7951       0.0000 
 P98                             J156                            J154                                174.5300     610.0000      71.7523       0.0000 
 P989                            J1153                           J1155                                91.5900      51.0000      82.0703       0.0000 
 P99                             J110                            J109                                452.3700     508.0000      96.6382       0.0000 
 P990                            J1155                           J1154                                78.8700     102.0000      85.7877       0.0000 
 P991                            J214                            J202                                 20.2500     203.0000      74.3133       0.0000 
 P992                            J202                            J314                                 69.1500     203.0000      80.6408       0.0000 
 P993                            J314                            J199                                 63.5200     203.0000      80.2320       0.0000 
 P994                            J199                            J1157                               115.3900     203.0000      83.0944       0.0000 
 P995                            J1157                           J201                                228.9900     152.0000      82.4996       0.0000 
 P997                            J201                            J308                                154.8700     203.0000      96.6174       0.0000 
 P998                            J308                            J204                                107.9800     203.0000      90.6408       0.0000 
 P999                            J203                            J341                                 81.6700     254.0000      68.7046       0.0000 

[PUMPS]
 PU1                             J285                            J273                             HEAD 8
 PU2                             J280                            J269                             HEAD 8

[VALVES]

[DEMANDS]
 J411                                  0.889040    DMA1_pat
 J414                                  0.965865    DMA1_pat
 J417                                  1.291233    DMA1_pat
 J314                                  1.437699    DMA1_pat
 J211                                  1.582595    DMA1_pat
 J212                                  0.606698    DMA1_pat
 J214                                  0.874781    DMA1_pat
 J217                                  1.278520    DMA1_pat
 J218                                  0.089174    DMA1_pat
 J110                                  0.781167    DMA1_pat
 J421                                  1.037828    DMA1_pat
 J1153                                 0.439655    DMA1_pat
 J1154                                 0.465570    DMA1_pat
 J1155                                 1.383003    DMA1_pat
 J1157                                 1.643489    DMA1_pat
 J1056                                 1.126960    DMA1_pat
 J431                                  1.055298    DMA1_pat
 J432                                  0.345935    DMA1_pat
 J433                                  0.310022    DMA1_pat
 J434                                  0.972265    DMA1_pat
 J435                                  0.134524    DMA1_pat
 J438                                  1.509550    DMA1_pat
 J336                                  0.163290    DMA1_pat
 J337                                  0.935067    DMA1_pat
 J341                                  0.428779    DMA1_pat
 J154                                  0.549560    DMA1_pat
 J155                                  0.159048    DMA1_pat
 J156                                  0.283123    DMA1_pat
 J159                                  0.454911    DMA1_pat
 J160                                  0.567677    DMA1_pat
 J177                                  0.825352    DMA1_pat
 J179                                  0.688280    DMA1_pat
 J1025                                 0.504162    DMA1_pat
 J408                                  0.888371    DMA1_pat
 J192                                  1.253851    DMA1_pat
 J194                                  1.243345    DMA1_pat
 J196                                  1.057619    DMA1_pat
 J308                                  1.188380    DMA1_pat
 J199                                  0.669971    DMA1_pat
 J201                                  0.458826    DMA1_pat
 J202                                  1.642290    DMA1_pat
 J203                                  1.337646    DMA1_pat
 J204                                  1.160168    DMA1_pat
 J208                                  0.594311    DMA1_pat
 J109                                  0.202583    DMA1_pat
 J11                                   0.363000    DMA1_pat
 J12                                   0.631652    DMA1_pat
 J13                                   0.659741    DMA1_pat
 J24                                   1.340445    DMA1_pat
 J39                                   1.124710    DMA1_pat
 J269                                  0.000000 
 J273                                  0.000000 
 J274                                  0.000000 
 J276                                  0.000000 
 J280                                  0.000000 
 J285                                  0.000000 

[EMITTERS]

[STATUS]

[PATTERNS]
 DMA1_pat                              0.5692       0.4647       0.4385       0.3604       0.3098       0.3345
 DMA1_pat                              0.3847       0.4715       0.5501       0.6805       0.7036       0.6709
 DMA1_pat                              0.7969       0.7199       0.7706       0.7385       0.8148       0.7243
 DMA1_pat                              0.8070       0.7793       0.8668       0.7408       0.6704       0.6324
 DMA1_pat                              0.5225       0.5067       0.4456       0.4547       0.4755       0.5339
 DMA1_pat                              0.6625       0.6224       0.6760       0.7259       0.8031       0.7014
 DMA1_pat                              0.6934       0.6538       0.6214       0.6523       0.5719       0.5790
 DMA1_pat                              0.5821       0.7117       0.7045       0.6658       0.7417       0.6922
 DMA1_pat                              0.7271       0.6192       0.4630       0.4510       0.3093       0.2824
 DMA1_pat                              0.4333       0.4067       0.5450       0.6993       0.7399       0.6434
 DMA1_pat                              0.6809       0.6911       0.6773       0.6263       0.6267       0.7143
 DMA1_pat                              0.6819       0.7883       0.7578       0.7883       0.8020       0.8456
 DMA1_pat                              0.6049       0.4436       0.5132       0.3648       0.3178       0.4639
 DMA1_pat                              0.3957       0.6415       0.6711       0.6688       0.7946       0.6746
 DMA1_pat                              0.7543       0.8084       0.7137       0.6857       0.6812       0.5496
 DMA1_pat                              0.6822       0.5698       0.7433       0.8322       0.6789       0.7463
 DMA1_pat                              0.6013       0.5035       0.5191       0.3595       0.2992       0.4532
 DMA1_pat                              0.4296       0.5395       0.8963       0.8967       0.6826       0.5799
 DMA1_pat                              0.4290       0.4201       0.6294       0.6910       0.6706       0.6189
 DMA1_pat                              0.6826       0.8329       0.9028       0.8218       0.8495       0.6910
 DMA1_pat                              0.7163       0.5478       0.5335       0.4196       0.3560       0.3381
 DMA1_pat                              0.4524       0.5099       0.5646       0.7608       0.6216       0.6782
 DMA1_pat                              0.6929       0.6393       0.6199       0.6597       0.6563       0.6318
 DMA1_pat                              0.6041       0.7039       0.7725       0.8855       0.8833       0.7520
 DMA1_pat                              0.7141       0.4579       0.4465       0.4294       0.4018       0.4331
 DMA1_pat                              0.4699       0.5223       0.5908       0.7549       0.7700       0.6448
 DMA1_pat                              0.7321       0.7095       0.5481       0.5777       0.5924       0.6245
 DMA1_pat                              0.5597       0.7669       0.7170       0.7745       0.9045       0.8575
 DMA2_pat                              0.6184       0.4539       0.4447       0.3382       0.3158       0.3132
 DMA2_pat                              0.4145       0.4487       0.4987       0.5816       0.6842       0.7276
 DMA2_pat                              0.6697       0.7921       0.6684       0.8158       0.7711       0.8303
 DMA2_pat                              0.8079       0.7934       0.8355       0.8368       0.6776       0.6618
 DMA2_pat                              0.5677       0.4708       0.4708       0.4261       0.4282       0.4740
 DMA2_pat                              0.5795       0.6231       0.6839       0.7744       0.7712       0.7957
 DMA2_pat                              0.6625       0.7360       0.7115       0.5954       0.6349       0.6167
 DMA2_pat                              0.5816       0.5965       0.7009       0.6508       0.7158       0.7318
 DMA2_pat                              0.6811       0.7337       0.4990       0.3736       0.3156       0.2765
 DMA2_pat                              0.3480       0.4612       0.5287       0.6258       0.6689       0.7647
 DMA2_pat                              0.6662       0.6514       0.7566       0.5611       0.6555       0.6447
 DMA2_pat                              0.7161       0.8402       0.7714       0.7903       0.8483       0.8213
 DMA2_pat                              0.6652       0.5016       0.4929       0.4160       0.3611       0.4380
 DMA2_pat                              0.3941       0.6542       0.6059       0.8112       0.7695       0.6432
 DMA2_pat                              0.6970       0.6762       0.7080       0.7080       0.7058       0.5390
 DMA2_pat                              0.5807       0.5653       0.7541       0.8255       0.6937       0.7936
 DMA2_pat                              0.7519       0.5080       0.4853       0.3801       0.3371       0.3945
 DMA2_pat                              0.4841       0.6419       0.8128       0.8463       0.6825       0.5929
 DMA2_pat                              0.4255       0.4196       0.5833       0.6240       0.5869       0.5630
 DMA2_pat                              0.6598       0.8116       0.8116       0.8821       0.8582       0.8570
 DMA2_pat                              0.6704       0.5742       0.5022       0.4325       0.3736       0.3544
 DMA2_pat                              0.4673       0.4661       0.5935       0.7172       0.5863       0.5863
 DMA2_pat                              0.6812       0.6475       0.6896       0.7160       0.7076       0.6824
 DMA2_pat                              0.6607       0.7340       0.8061       0.7965       0.8421       0.7124
 DMA2_pat                              0.5943       0.4652       0.4943       0.4454       0.3268       0.5129
 DMA2_pat                              0.5140       0.5257       0.5826       0.6013       0.7792       0.6629
 DMA2_pat                              0.6827       0.7292       0.5896       0.6036       0.5885       0.6594
 DMA2_pat                              0.6257       0.6978       0.7827       0.8176       0.9292       0.7897
 DMA3_pat                              0.5445       0.4813       0.4221       0.3551       0.3235       0.3590
 DMA3_pat                              0.4103       0.4734       0.5602       0.6746       0.7536       0.7299
 DMA3_pat                              0.6707       0.7338       0.7062       0.7614       0.7141       0.8364
 DMA3_pat                              0.8719       0.7378       0.7259       0.7496       0.6707       0.7338
 DMA3_pat                              0.5870       0.4263       0.4427       0.4132       0.4329       0.4919
 DMA3_pat                              0.5542       0.6788       0.7543       0.7444       0.7936       0.6821
 DMA3_pat                              0.6952       0.6460       0.5936       0.5969       0.6395       0.6460
 DMA3_pat                              0.6428       0.6821       0.7280       0.6788       0.6920       0.7575
 DMA3_pat                              0.7141       0.7020       0.5043       0.3954       0.3147       0.2864
 DMA3_pat                              0.4196       0.4317       0.4962       0.6980       0.5890       0.6939
 DMA3_pat                              0.6939       0.7665       0.6939       0.5810       0.7060       0.7020
 DMA3_pat                              0.6657       0.8230       0.7383       0.8593       0.8150       0.7101
 DMA3_pat                              0.6060       0.4855       0.4554       0.3917       0.3683       0.4118
 DMA3_pat                              0.4085       0.6629       0.6027       0.7031       0.6596       0.6194
 DMA3_pat                              0.7098       0.8103       0.7634       0.8203       0.7634       0.5993
 DMA3_pat                              0.6797       0.6060       0.6897       0.8136       0.7031       0.6663
 DMA3_pat                              0.6227       0.5745       0.4541       0.3681       0.3303       0.4404
 DMA3_pat                              0.4060       0.6193       0.8911       0.9461       0.7397       0.5642
 DMA3_pat                              0.4576       0.4025       0.6709       0.6468       0.5917       0.5573
 DMA3_pat                              0.6227       0.8257       0.8911       0.8532       0.7534       0.7706
 DMA3_pat                              0.7455       0.5927       0.4883       0.3802       0.3355       0.3765
 DMA3_pat                              0.4473       0.5629       0.5256       0.7157       0.6374       0.5815
 DMA3_pat                              0.6747       0.6672       0.6374       0.6412       0.6710       0.6859
 DMA3_pat                              0.6001       0.7306       0.8499       0.8685       0.8424       0.7418
 DMA3_pat                              0.6642       0.5278       0.5134       0.4596       0.3590       0.4775
 DMA3_pat                              0.5278       0.5637       0.6103       0.6355       0.8006       0.7180
 DMA3_pat                              0.6139       0.6067       0.6211       0.6139       0.7180       0.5744
 DMA3_pat                              0.5816       0.6678       0.6786       0.9155       0.8258       0.7252
 DMA4_pat                              0.5245       0.4486       0.4367       0.3180       0.3180       0.3275
 DMA4_pat                              0.4248       0.4320       0.5744       0.6646       0.6907       0.7405
 DMA4_pat                              0.7619       0.7642       0.7191       0.6859       0.8283       0.8283
 DMA4_pat                              0.7453       0.8093       0.8307       0.7025       0.7737       0.6503
 DMA4_pat                              0.4973       0.4503       0.4386       0.4347       0.4268       0.5326
 DMA4_pat                              0.6344       0.7088       0.7636       0.7166       0.7616       0.7949
 DMA4_pat                              0.7695       0.6266       0.5991       0.5835       0.6011       0.5933
 DMA4_pat                              0.5678       0.5933       0.6285       0.7714       0.6990       0.8067
 DMA4_pat                              0.7314       0.6664       0.5341       0.3970       0.3248       0.2574
 DMA4_pat                              0.4234       0.4379       0.5485       0.6929       0.6135       0.7506
 DMA4_pat                              0.7723       0.6736       0.6953       0.6640       0.5798       0.6856
 DMA4_pat                              0.6712       0.8324       0.7386       0.8781       0.7506       0.6808
 DMA4_pat                              0.6721       0.4879       0.5304       0.4150       0.3462       0.4211
 DMA4_pat                              0.4676       0.5789       0.6599       0.7105       0.7206       0.6194
 DMA4_pat                              0.7186       0.7126       0.7632       0.7085       0.6660       0.5263
 DMA4_pat                              0.6296       0.6336       0.7166       0.7652       0.7611       0.7692
 DMA4_pat                              0.7166       0.5845       0.4998       0.3965       0.3119       0.4523
 DMA4_pat                              0.4378       0.6072       0.8240       0.8302       0.7456       0.6464
 DMA4_pat                              0.4192       0.4647       0.5907       0.6361       0.5927       0.6609
 DMA4_pat                              0.7043       0.7435       0.7518       0.8116       0.8757       0.6960
 DMA4_pat                              0.6601       0.5849       0.4989       0.4322       0.3419       0.3483
 DMA4_pat                              0.4688       0.5204       0.5311       0.6408       0.6451       0.5806
 DMA4_pat                              0.6881       0.7311       0.7332       0.6623       0.6601       0.6429
 DMA4_pat                              0.6214       0.7526       0.7870       0.8063       0.8407       0.8214
 DMA4_pat                              0.5928       0.4738       0.4613       0.4551       0.3736       0.4467
 DMA4_pat                              0.4571       0.4759       0.6513       0.7389       0.7264       0.7076
 DMA4_pat                              0.6617       0.6450       0.6387       0.6179       0.6617       0.6429
 DMA4_pat                              0.6325       0.7139       0.7786       0.7431       0.9310       0.7723
 DMA5_pat                              0.5361       0.4415       0.4073       0.2864       0.3232       0.3311
 DMA5_pat                              0.3679       0.5046       0.5886       0.6228       0.7253       0.7384
 DMA5_pat                              0.7700       0.6938       0.6938       0.7595       0.8146       0.8068
 DMA5_pat                              0.8514       0.8146       0.7673       0.7148       0.7989       0.6412
 DMA5_pat                              0.5555       0.4960       0.4541       0.4364       0.4982       0.5312
 DMA5_pat                              0.6106       0.6018       0.7450       0.7450       0.6899       0.6811
 DMA5_pat                              0.6547       0.6811       0.6282       0.5952       0.6392       0.6150
 DMA5_pat                              0.6569       0.5885       0.6150       0.7406       0.8266       0.7142
 DMA5_pat                              0.7669       0.7048       0.4860       0.3672       0.3078       0.3078
 DMA5_pat                              0.4077       0.4482       0.5050       0.6832       0.6643       0.7399
 DMA5_pat                              0.6940       0.6427       0.7723       0.5536       0.5887       0.7588
 DMA5_pat                              0.6535       0.8263       0.8182       0.8155       0.8128       0.6751
 DMA5_pat                              0.6553       0.4582       0.5202       0.3542       0.3431       0.4383
 DMA5_pat                              0.4582       0.6265       0.6685       0.7504       0.7195       0.6973
 DMA5_pat                              0.7682       0.8036       0.6331       0.6641       0.7283       0.5933
 DMA5_pat                              0.6730       0.6663       0.6066       0.7991       0.7217       0.6530
 DMA5_pat                              0.6371       0.5566       0.5590       0.4169       0.3055       0.4287
 DMA5_pat                              0.4169       0.5969       0.7793       0.8314       0.7437       0.6774