[TITLE]

[JUNCTIONS]
 J411                                  8.9500
 J414                                 34.3600
 J417                                 37.3800
 J314                                 14.9400
 J211                                 11.2700
 J212                                  7.8700
 J214                                  8.6700
 J217                                 10.9800
 J218                                  7.6800
 J110                                 15.9200
 J421                                 37.0900
 J1153                                22.1400
 J1154                                14.6100
 J1155                                15.5400
 J1157                                22.2100
 J1056                                 7.6400
 J431                                 16.9000
 J432                                 19.8800
 J433                                 27.3500
 J434                                 16.4800
 J435                                 12.1500
 J438                                 10.4300
 J336                                 23.8100
 J337                                 22.1100
 J341                                 14.8900
 J154                                 43.6900
 J155                                 44.4100
 J156                                 56.1600
 J159                                 37.4100
 J160                                 43.6900
 J177                                 13.1400
 J179                                 15.0100
 J1025                                 8.6100
 J408                                  7.9300
 J192                                 12.4000
 J194                                 13.4600
 J196                                 13.3500
 J308                                 33.2400
 J199                                 16.2600
 J201                                 44.8600
 J202                                 10.4100
 J203                                 11.0300
 J204                                 21.5100
 J208                                 11.2500
 J109                                 17.4700
 J11                                  18.4300
 J12                                  29.2700
 J13                                  32.0400
 J24                                  34.5300
 J39                                  45.8800
 J269                                 56.0000
 J273                                 56.0000
 J274                                 56.0000
 J276                                 56.0000
 J280                                 56.0000
 J285                                 56.0000

[RESERVOIRS]
 R1                                   59.0000 

[TANKS]
 T1                                   51.5000      30.0000       0.0000      30.0000      61.3000       0.0000 

[PIPES]
 P100                            J159                            J160                                107.8800     406.0000      76.5142       0.0000 
 P1000                           J341                            J204                                109.2700     203.0000      76.9461       0.0000 
 P102                            J109                            J408                               1280.3000     508.0000      92.9472       0.0000 
 P110                            J179                            J177                                425.8300     508.0000      98.9941       0.0000 
 P115                            J408                            J435                                 99.8800     102.0000      91.2315       0.0000 
 P117                            J435                            J431                                104.0000     102.0000      67.9620       0.0000 
 P118                            J431                            J432                                115.9100     102.0000      84.6653       0.0000 
 P12                             J208                            J337                                 85.2400     406.0000      89.6626       0.0000 
 P13                             J337                            J24                                  62.5600     406.0000      83.0438       0.0000 
 P138                            J203                            J217                                 19.2800     254.0000      72.4853       0.0000 
 P139                            J208                            J211                                 73.6600     406.0000      68.7185       0.0000 
 P14                             J24                             J39                                 151.3900     406.0000      72.0091       0.0000 
 P15                             J39                             T1                                  395.2900     406.0000      90.4830       0.0000 
 P159                            J204                            J336                                118.7800     203.0000      80.1472       0.0000 
 P17                             J408                            J1025                                32.4200     508.0000      77.2813       0.0000 
 P18                             J1025                           J411                                283.3000     508.0000     100.3000       0.0000 
 P19                             J411                            J1056                               750.8700     508.0000      97.7000       0.0000 
 P20                             J1056                           J214                                579.6700     508.0000      89.6725       0.0000 
 P21                             J214                            J212                                176.4800     406.0000      86.6937       0.0000 
 P22                             J159                            J192                                567.3000     406.0000      81.1136       0.0000 
 P23                             J192                            J196                                316.9100     508.0000      77.1626       0.0000 
 P235                            J336                            J337                                 92.7400      76.0000      84.3219       0.0000 
 P24                             J177                            J194                                 71.0500     508.0000      88.6208       0.0000 
 P25                             J196                            J194                                  4.3000     508.0000      74.3773       0.0000 
 P296                            J432                            J433                                231.8700      76.0000      82.9572       0.0000 
 P297                            J411                            J438                                 42.5300     406.0000      73.0000       0.0000 
 P298                            J438                            J434                                 40.1100     305.0000      84.5511       0.0000 
 P301                            J434                            J11                                  45.3100     305.0000      85.1892       0.0000 
 P302                            J11                             J433                                178.2800     305.0000      80.3402       0.0000 
 P307                            J433                            J12                                  47.3000     305.0000      60.5122       0.0000 
 P310                            J269                            J156                                  9.0000     610.0000      87.2680       0.0000 
 P316                            R1                              J280                                 11.6200     610.0000      70.4519       0.0000 
 P319                            J274                            J269                                 10.5400     610.0000      76.5927       0.0000 
 P320                            J273                            J269                                 11.4700     610.0000      76.5188       0.0000 
 P322                            J280                            J285                                 11.5000     610.0000      89.4331       0.0000 
 P323                            J280                            J276                                 11.4700     610.0000      84.6872       0.0000 
 P34                             J179                            J110                                 98.0000     508.0000      78.5060       0.0000 
 P443                            J13                             J12                                  67.3100     305.0000      85.5760       0.0000 
 P445                            J417                            J421                                  7.8000     254.0000      86.2106       0.0000 
 P484                            J438                            J13                                 336.5700     203.0000      79.9800       0.0000 
 P7                              J218                            J211                                 60.2200     508.0000      78.4537       0.0000 
 P8                              J218                            J212                                 11.3500     406.0000      76.0774       0.0000 
 P819                            J1153                           J1157                                 8.0200     203.0000     105.0733       0.0000 
 P83                             J155                            J160                                 15.1400     610.0000      75.6638       0.0000 
 P892                            J414                            J13                                  30.3900     254.0000      69.8485       0.0000 
 P9                              J212                            J217                                 49.9500     254.0000      66.7492       0.0000 
 P96                             J414                            J417                                 53.7200     254.0000      87.9028       0.0000 
 P97                             J154                            J155                                 24.4100     610.0000      88.8953       0.0000 
 P970                            J1154                           J199                                165.0400     203.0000      87.7951       0.0000 
 P98                             J156                            J154                                174.5300     610.0000      71.7523       0.0000 
 P989                            J1153                           J1155                                91.5900      51.0000      82.0703       0.0000 
 P99                             J110                            J109                                452.3700     508.0000      96.6382       0.0000 
 P990                            J1155                           J1154                                78.8700     102.0000      85.7877       0.0000 
 P991                            J214                            J202                                 20.2500     203.0000      74.3133       0.0000 
 P992                            J202                            J314                                 69.1500     203.0000      80.6408       0.0000 
 P993                            J314                            J199                                 63.5200     203.0000      80.2320       0.0000 
 P994                            J199                            J1157                               115.3900     203.0000      83.0944       0.0000 
 P995                            J1157                           J201                                228.9900     152.0000      82.4996       0.0000 
 P997                            J201                            J308                                154.8700     203.0000      96.6174       0.0000 
 P998                            J308                            J204                                107.9800     203.0000      90.6408       0.0000 
 P999                            J203                            J341                                 81.6700     254.0000      68.7046       0.0000 

[PUMPS]
 PU1                             J285                            J273                             HEAD 8
 PU2                             J280                            J269                             HEAD 8

[VALVES]

[DEMANDS]
 J411                                  0.889040    DMA1_pat
 J414                                  0.965865    DMA1_pat
 J417                                  1.291233    DMA1_pat
 J314                                  1.437699    DMA1_pat
 J211                                  1.582595    DMA1_pat
 J212                                  0.606698    DMA1_pat
 J214                                  0.874781    DMA1_pat
 J217                                  1.278520    DMA1_pat
 J218                                  0.089174    DMA1_pat
 J110                                  0.781167    DMA1_pat
 J421                                  1.037828    DMA1_pat
 J1153                                 0.439655    DMA1_pat
 J1154                                 0.465570    DMA1_pat
 J1155                                 1.383003    DMA1_pat
 J1157                                 1.643489    DMA1_pat
 J1056                                 1.126960    DMA1_pat
 J431                                  1.055298    DMA1_pat
 J432                                  0.345935    DMA1_pat
 J433                                  0.310022    DMA1_pat
 J434                                  0.972265    DMA1_pat
 J435                                  0.134524    DMA1_pat
 J438                                  1.509550    DMA1_pat
 J336                                  0.163290    DMA1_pat
 J337                                  0.935067    DMA1_pat
 J341                                  0.428779    DMA1_pat
 J154                                  0.549560    DMA1_pat
 J155                                  0.159048    DMA1_pat
 J156                                  0.283123    DMA1_pat
 J159                                  0.454911    DMA1_pat
 J160                                  0.567677    DMA1_pat
 J177                                  0.825352    DMA1_pat
 J179                                  0.688280    DMA1_pat
 J1025                                 0.504162    DMA1_pat
 J408                                  0.888371    DMA1_pat
 J192                                  1.253851    DMA1_pat
 J194                                  1.243345    DMA1_pat
 J196                                  1.057619    DMA1_pat
 J308                                  1.188380    DMA1_pat
 J199                                  0.669971    DMA1_pat
 J201                                  0.458826    DMA1_pat
 J202                                  1.642290    DMA1_pat
 J203                                  1.337646    DMA1_pat
 J204                                  1.160168    DMA1_pat
 J208                                  0.594311    DMA1_pat
 J109                                  0.202583    DMA1_pat
 J11                                   0.363000    DMA1_pat
 J12                                   0.631652    DMA1_pat
 J13                                   0.659741    DMA1_pat
 J24                                   1.340445    DMA1_pat
 J39                                   1.124710    DMA1_pat
 J269                                  0.000000 
 J273                                  0.000000 
 J274                                  0.000000 
 J276                                  0.000000 
 J280                                  0.000000 
 J285                                  0.000000 

[EMITTERS]

[STATUS]

[PATTERNS]
 DMA1_pat                              5.6915       4.6467       4.3855       3.6042       3.0978       3.3452
 DMA1_pat                              3.8470       4.7154       5.5013       6.8051       7.0365       6.7088
 DMA1_pat                              7.9690       7.1992       7.7055       7.3847       8.1477       7.2427
 DMA1_pat                              8.0698       7.7926       8.6679       7.4077       6.7042       6.3239
 DMA1_pat                              5.2252       5.0671       4.4559       4.5465       4.7547       5.3390
 DMA1_pat                              6.6250       6.2240       6.7600       7.2594       8.0306       7.0145
 DMA1_pat                              6.9335       6.5383       6.2143       6.5228       5.7188       5.7901
 DMA1_pat                              5.8210       7.1167       7.0453       6.6578       7.4175       6.9219
 DMA1_pat                              7.2709       6.1925       4.6305       4.5096       3.0926       2.8242
 DMA1_pat                              4.3330       4.0671       5.4501       6.9928       7.3990       6.4343
 DMA1_pat                              6.8091       6.9106       6.7728       6.2626       6.2674       7.1427
 DMA1_pat                              6.8187       7.8826       7.5780       7.8826       8.0205       8.4557
 DMA1_pat                              6.0488       4.4363       5.1316       3.6476       3.1783       4.6389
 DMA1_pat                              3.9573       6.4150       6.7110       6.6876       7.9457       6.7460
 DMA1_pat                              7.5426       8.0839       7.1375       6.8570       6.8123       5.4958
 DMA1_pat                              6.8220       5.6983       7.4335       8.3215       6.7889       7.4627
 DMA1_pat                              6.0133       5.0353       5.1909       3.5946       2.9925       4.5322
 DMA1_pat                              4.2958       5.3950       8.9633       8.9673       6.8255       5.7991
 DMA1_pat                              4.2897       4.2008       6.2941       6.9104       6.7063       6.1890
 DMA1_pat                              6.8255       8.3288       9.0280       8.2177       8.4945       6.9104
 DMA1_pat                              7.1629       5.4775       5.3350       4.1965       3.5602       3.3814
 DMA1_pat                              4.5242       5.0987       5.6456       7.6077       6.2160       6.7820
 DMA1_pat                              6.9288       6.3926       6.1989       6.5969       6.5628       6.3181
 DMA1_pat                              6.0415       7.0395       7.7247       8.8547       8.8334       7.5204
 DMA1_pat                              7.1410       4.5793       4.4654       4.2937       4.0185       4.3309
 DMA1_pat                              4.6993       5.2228       5.9077       7.5486       7.6997       6.4478
 DMA1_pat                              7.3210       7.0955       5.4814       5.7773       5.9243       6.2450
 DMA1_pat                              5.5973       7.6686       7.1700       7.7452       9.0447       8.5750
 DMA2_pat                              6.1842       4.5395       4.4474       3.3816       3.1579       3.1316
 DMA2_pat                              4.1447       4.4868       4.9868       5.8158       6.8421       7.2763
 DMA2_pat                              6.6974       7.9211       6.6842       8.1579       7.7105       8.3026
 DMA2_pat                              8.0789       7.9342       8.3553       8.3684       6.7763       6.6184
 DMA2_pat                              5.6775       4.7081       4.7081       4.2608       4.2821       4.7401
 DMA2_pat                              5.7946       6.2314       6.8385       7.7439       7.7120       7.9570
 DMA2_pat                              6.6255       7.3605       7.1155       5.9544       6.3485       6.1674
 DMA2_pat                              5.8159       5.9651       7.0089       6.5083       7.1581       7.3179
 DMA2_pat                              6.8108       7.3368       4.9901       3.7358       3.1559       2.7648
 DMA2_pat                              3.4796       4.6125       5.2868       6.2579       6.6894       7.6470
 DMA2_pat                              6.6625       6.5141       7.5661       5.6105       6.5546       6.4467
 DMA2_pat                              7.1615       8.4023       7.7144       7.9033       8.4832       8.2135
 DMA2_pat                              6.6520       5.0165       4.9286       4.1603       3.6114       4.3798
 DMA2_pat                              3.9407       6.5423       6.0593       8.1120       7.6948       6.4325
 DMA2_pat                              6.9704       6.7618       7.0801       7.0801       7.0582       5.3897
 DMA2_pat                              5.8068       5.6531       7.5412       8.2547       6.9374       7.9363
 DMA2_pat                              7.5185       5.0801       4.8530       3.8011       3.3708       3.9445
 DMA2_pat                              4.8410       6.4188       8.1281       8.4628       6.8252       5.9288
 DMA2_pat                              4.2553       4.1956       5.8331       6.2395       5.8690       5.6299
 DMA2_pat                              6.5981       8.1162       8.1162       8.8214       8.5824       8.5704
 DMA2_pat                              6.7035       5.7424       5.0216       4.3248       3.7362       3.5440
 DMA2_pat                              4.6732       4.6612       5.9346       7.1720       5.8626       5.8626
 DMA2_pat                              6.8116       6.4753       6.8957       7.1600       7.0759       6.8236
 DMA2_pat                              6.6074       7.3402       8.0610       7.9649       8.4214       7.1240
 DMA2_pat                              5.9428       4.6519       4.9426       4.4542       3.2679       5.1287
 DMA2_pat                              5.1403       5.2566       5.8265       6.0126       7.7919       6.6289
 DMA2_pat                              6.8266       7.2918       5.8963       6.0358       5.8846       6.5940
 DMA2_pat                              6.2568       6.9778       7.8268       8.1757       9.2921       7.8966
 DMA3_pat                             10.8890       9.6265       8.4429       7.1015       6.4703       7.1804
 DMA3_pat                              8.2062       9.4687      11.2046      13.4929      15.0710      14.5976
 DMA3_pat                             13.4140      14.6765      14.1241      15.2288      14.2820      16.7280
 DMA3_pat                             17.4382      14.7554      14.5187      14.9921      13.4140      14.6765
 DMA3_pat                             11.7403       8.5265       8.8544       8.2641       8.6576       9.8382
 DMA3_pat                             11.0844      13.5767      15.0853      14.8885      15.8723      13.6423
 DMA3_pat                             13.9047      12.9209      11.8714      11.9370      12.7897      12.9209
 DMA3_pat                             12.8553      13.6423      14.5606      13.5767      13.8391      15.1509
 DMA3_pat                             14.2819      14.0398      10.0861       7.9075       6.2937       5.7289
 DMA3_pat                              8.3916       8.6337       9.9247      13.9591      11.7805      13.8784
 DMA3_pat                             13.8784      15.3308      13.8784      11.6191      14.1205      14.0398
 DMA3_pat                             13.3136      16.4605      14.7660      17.1867      16.2991      14.2012
 DMA3_pat                             12.1205       9.7098       9.1071       7.8348       7.3661       8.2366
 DMA3_pat                              8.1696      13.2589      12.0536      14.0625      13.1920      12.3884
 DMA3_pat                             14.1964      16.2054      15.2679      16.4063      15.2679      11.9866
 DMA3_pat                             13.5938      12.1205      13.7946      16.2723      14.0625      13.3259
 DMA3_pat                             12.4541      11.4908       9.0826       7.3624       6.6055       8.8073
 DMA3_pat                              8.1193      12.3853      17.8211      18.9220      14.7936      11.2844
 DMA3_pat                              9.1514       8.0505      13.4174      12.9358      11.8349      11.1468
 DMA3_pat                             12.4541      16.5138      17.8211      17.0642      15.0688      15.4128
 DMA3_pat                             14.9105      11.8539       9.7664       7.6044       6.7097       7.5298
 DMA3_pat                              8.9463      11.2575      10.5119      14.3141      12.7485      11.6302
 DMA3_pat                             13.4940      13.3449      12.7485      12.8231      13.4195      13.7177
 DMA3_pat                             12.0030      14.6123      16.9980      17.3708      16.8489      14.8360
 DMA3_pat                             13.2839      10.5553      10.2681       9.1910       7.1805       9.5500
 DMA3_pat                             10.5553      11.2733      12.2068      12.7094      16.0124      14.3609
 DMA3_pat                             12.2786      12.1350      12.4222      12.2786      14.3609      11.4888
 DMA3_pat                             11.6324      13.3557      13.5711      18.3102      16.5151      14.5045
 DMA4_pat                             10.4905       8.9715       8.7342       6.3608       6.3608       6.5506
 DMA4_pat                              8.4968       8.6392      11.4873      13.2911      13.8133      14.8101
 DMA4_pat                             15.2373      15.2848      14.3829      13.7184      16.5665      16.5665
 DMA4_pat                             14.9051      16.1867      16.6139      14.0506      15.4747      13.0063
 DMA4_pat                              9.9465       9.0067       8.7717       8.6934       8.5367      10.6514
 DMA4_pat                             12.6876      14.1757      15.2722      14.3323      15.2330      15.8987
 DMA4_pat                             15.3896      12.5310      11.9828      11.6695      12.0219      11.8653
 DMA4_pat                             11.3562      11.8653      12.5702      15.4288      13.9799      16.1337
 DMA4_pat                             14.6271      13.3280      10.6816       7.9391       6.4956       5.1484
 DMA4_pat                              8.4683       8.7570      10.9703      13.8573      12.2694      15.0120
 DMA4_pat                             15.4451      13.4723      13.9054      13.2799      11.5958      13.7129
 DMA4_pat                             13.4242      16.6480      14.7715      17.5621      15.0120      13.6167
 DMA4_pat                             13.4413       9.7571      10.6073       8.2996       6.9231       8.4211
 DMA4_pat                              9.3522      11.5789      13.1984      14.2105      14.4130      12.3887
 DMA4_pat                             14.3725      14.2510      15.2632      14.1700      13.3198      10.5263
 DMA4_pat                             12.5911      12.6721      14.3320      15.3036      15.2227      15.3846
 DMA4_pat                             14.3329      11.6894       9.9959       7.9306       6.2371       9.0458
 DMA4_pat                              8.7567      12.1437      16.4808      16.6047      14.9112      12.9285
 DMA4_pat                              8.3850       9.2937      11.8133      12.7220      11.8546      13.2177
 DMA4_pat                             14.0851      14.8699      15.0351      16.2330      17.5134      13.9199
 DMA4_pat                             13.2024      11.6972       9.9771       8.6439       6.8377       6.9667
 DMA4_pat                              9.3750      10.4071      10.6221      12.8154      12.9014      11.6112
 DMA4_pat                             13.7615      14.6216      14.6646      13.2454      13.2024      12.8584
 DMA4_pat                             12.4283      15.0516      15.7397      16.1267      16.8148      16.4278
 DMA4_pat                             11.8564       9.4768       9.2263       9.1010       7.4729       8.9340
 DMA4_pat                              9.1428       9.5185      13.0253      14.7787      14.5282      14.1525
 DMA4_pat                             13.2341      12.9001      12.7748      12.3574      13.2341      12.8583
 DMA4_pat                             12.6496      14.2778      15.5719      14.8622      18.6195      15.4467
 DMA5_pat                             10.4905       8.9715       8.7342       6.3608       6.3608       6.5506
 DMA5_pat                              8.4968       8.6392      11.4873      13.2911      13.8133      14.8101
 DMA5_pat                             15.2373      15.2848      14.3829      13.7184      16.5665      16.5665
 DMA5_pat                             14.9051      16.1867      16.6139      14.0506      15.4747      13.0063
 DMA5_pat                              9.9465       9.0067       8.7717       8.6934       8.5367      10.6514
 DMA5_pat                             12.6876      14.1757      15.2722      14.3323      15.2330      15.8987
 DMA5_pat                             15.3896      12.5310      11.9828      11.6695      12.0219      11.8653
 DMA5_pat                             11.3562      11.8653      12.5702      15.4288      13.9799      16.1337
 DMA5_pat                             14.6271      13.3280      10.6816       7.9391       6.4956       5.1484
 DMA5_pat                              8.4683       8.7570      10.9703      13.8573      12.2694      15.0120
 DMA5_pat                             15.4451      13.4723      13.9054      13.2799      11.5958      13.7129
 DMA5_pat                             13.4242      16.6480      14.7715      17.5621      15.0120      13.6167
 DMA5_pat                             13.4413       9.7571      10.6073       8.2996       6.9231       8.4211
 DMA5_pat                              9.3522      11.5789      13.1984      14.2105      14.4130      12.3887
 DMA5_pat                             14.3725      14.2510      15.2632      14.1700      13.3198      10.5263
 DMA5_pat                             12.5911      12.6721      14.3320      15.3036      15.2227      15.3846
 DMA5_pat                             14.3329      11.6894       9.9959       7.9306       6.2371       9.0458
 DMA5_pat                              8.7567      12.1437      16.4808      16.6047      14.9112      12.9285