[TITLE]

[JUNCTIONS]
 J511                                105.0800
 J411                                  8.9500
 J414                                 34.3600
 J415                                 65.0000
 J416                                 42.6000
 J417                                 37.3800
 J419                                 40.5000
 J314                                 14.9400
 J211                                 11.2700
 J212                                  7.8700
 J214                                  8.6700
 J217                                 10.9800
 J218                                  7.6800
 J219                                 52.0000
 J110                                 15.9200
 J420                                 39.9900
 J421                                 37.0900
 J422                                 38.8100
 J1153                                22.1400
 J1154                                14.6100
 J1155                                15.5400
 J425                                 64.4200
 J426                                 72.7100
 J1157                                22.2100
 J427                                 67.6500
 J1056                                 7.6400
 J327                                 49.6800
 J328                                 45.6900
 J329                                 44.0500
 J53                                  85.0000
 J56                                  72.0000
 J57                                  59.0000
 J58                                  76.0000
 J59                                  57.0000
 J431                                 16.9000
 J432                                 19.8800
 J433                                 27.3500
 J434                                 16.4800
 J435                                 12.1500
 J438                                 10.4300
 J330                                 58.2500
 J331                                 59.2600
 J332                                 44.1800
 J336                                 23.8100
 J337                                 22.1100
 J233                                 74.2300
 J234                                 64.0600
 J60                                  55.0000
 J134                                 80.7000
 J135                                 70.0000
 J64                                  82.0000
 J66                                  72.0000
 J67                                  81.0000
 J441                                 69.0000
 J341                                 14.8900
 J242                                 65.0000
 J243                                 60.0000
 J244                                 70.0000
 J245                                 71.0000
 J352                                 47.5500
 J250                                 67.0000
 J154                                 43.6900
 J155                                 44.4100
 J156                                 56.1600
 J84                                  43.8200
 J159                                 37.4100
 J86                                  50.0000
 J87                                  42.6300
 J362                                 43.6600
 J363                                 72.2300
 J364                                 65.0000
 J1208                                42.7400
 J160                                 43.6900
 J371                                 68.8100
 J177                                 13.1400
 J179                                 15.0100
 J580                                113.0800
 J382                                 70.4200
 J384                                 42.5100
 J1025                                 8.6100
 J494                                112.7600
 J496                                106.3400
 J497                                112.6300
 J498                                 90.1200
 J503                                 99.6500
 J509                                 99.9400
 J408                                  7.9300
 J297                                 99.0500
 J192                                 12.4000
 J194                                 13.4600
 J196                                 13.3500
 J308                                 33.2400
 J199                                 16.2600
 J201                                 44.8600
 J202                                 10.4100
 J203                                 11.0300
 J204                                 21.5100
 J208                                 11.2500
 J109                                 17.4700
 J11                                  18.4300
 J12                                  29.2700
 J13                                  32.0400
 J14                                  37.9100
 J22                                  82.7400
 J23                                  75.9600
 J24                                  34.5300
 J39                                  45.8800
 J197                                 41.8600
 J216                                 53.0600
 J227                                 52.8900
 J238                                 44.1600
 J256                                 40.0000
 J269                                 56.0000
 J273                                 56.0000
 J274                                 56.0000
 J276                                 56.0000
 J280                                 56.0000
 J285                                 56.0000
 J287                                 40.0000
 J288                                 40.0000
 J289                                 40.0000
 J290                                 40.0000
 J291                                 65.0000
 J292                                 40.0000
 J299                                 40.0000
 J300                                 40.0000
 J301                                 44.0000
 J302                                 44.0000
 J304                                 44.0000
 J306                                 44.0000
 J307                                 44.0000
 J309                                 44.0000
 J317                                 44.0000
 J323                                 44.0000

[RESERVOIRS]
 R1                                   59.0000 

[TANKS]
 T3                                  112.9000       3.0000       0.0000       6.7500      13.7300       0.0000 
 T1                                   71.5000       3.0000       0.0000       6.5000      31.3000       0.0000 
 T7                                  102.0000       2.5000       0.0000       5.0000       7.1400       0.0000 
 T6                                  101.5000       5.2000       0.0000       5.5000       8.3300       0.0000 
 T5                                  105.8000       1.0000       0.0000       4.5000      11.8900       0.0000 
 T2                                   65.0000       0.5000       0.0000       5.9000      20.7800       0.0000 
 T4                                  132.5000       2.5000       0.0000       4.7000      11.6400       0.0000 

[PIPES]
 P100                            J159                            J160                                107.8800     406.0000      76.5142       0.0000 
 P1000                           J341                            J204                                109.2700     203.0000      76.9461       0.0000 
 P1016                           J22                             J233                                164.7700     305.0000      85.2382       0.0000 
 P102                            J109                            J408                               1280.3000     508.0000      92.9472       0.0000 
 P1044                           T5                              J64                                  65.8000     203.0000     100.2182       0.0000 
 P1045                           J64                             J53                                  68.6300     203.0000     118.8214       0.0000 
 P110                            J179                            J177                                425.8300     508.0000      98.9941       0.0000 
 P115                            J408                            J435                                 99.8800     102.0000      91.2315       0.0000 
 P117                            J435                            J431                                104.0000     102.0000      67.9620       0.0000 
 P118                            J431                            J432                                115.9100     102.0000      84.6653       0.0000 
 P12                             J208                            J337                                 85.2400     406.0000      89.6626       0.0000 
 P13                             J337                            J24                                  62.5600     406.0000      83.0438       0.0000 
 P138                            J203                            J217                                 19.2800     254.0000      72.4853       0.0000 
 P139                            J208                            J211                                 73.6600     406.0000      68.7185       0.0000 
 P14                             J24                             J39                                 151.3900     406.0000      72.0091       0.0000 
 P144                            J382                            T6                                  130.7900      76.0000      99.9191       0.0000 
 P148                            J233                            J234                                561.6900     305.0000      96.4394       0.0000 
 P15                             J39                             T1                                  395.2900     406.0000      90.4830       0.0000 
 P154                            J245                            J66                                 170.6400     152.0000     108.8316       0.0000 
 P155                            J60                             J219                                 59.3800     101.6000     105.7092       0.0000 
 P156                            J242                            J243                                 80.3400     102.0000     110.8685       0.0000 
 P157                            J244                            J245                                232.9300     102.0000     102.9010       0.0000 
 P159                            J204                            J336                                118.7800     203.0000      80.1472       0.0000 
 P165                            J135                            J234                                143.8100     305.0000      92.9343       0.0000 
 P166                            J352                            J382                                235.0000     101.6000      93.6027       0.0000 
 P17                             J408                            J1025                                32.4200     508.0000      77.2813       0.0000 
 P18                             J1025                           J411                                283.3000     508.0000     100.3000       0.0000 
 P184                            J1208                           J352                                 59.3800     101.6000      95.9147       0.0000 
 P19                             J411                            J1056                               750.8700     508.0000      97.7000       0.0000 
 P20                             J1056                           J214                                579.6700     508.0000      89.6725       0.0000 
 P21                             J214                            J212                                176.4800     406.0000      86.6937       0.0000 
 P215                            J419                            T2                                  140.7600     254.0000      81.4235       0.0000 
 P22                             J159                            J192                                567.3000     406.0000      81.1136       0.0000 
 P228                            J327                            J328                                 42.7200      76.0000      99.2889       0.0000 
 P23                             J192                            J196                                316.9100     508.0000      77.1626       0.0000 
 P230                            J330                            J327                                114.6100      76.0000      77.3953       0.0000 
 P231                            J331                            J330                                 12.2100      76.0000      98.4154       0.0000 
 P235                            J336                            J337                                 92.7400      76.0000      84.3219       0.0000 
 P237                            J415                            J441                                 12.0100     305.0000       5.0585       0.0000 
 P238                            J441                            J416                                 12.5900     304.8000     104.7400       0.0000 
 P24                             J177                            J194                                 71.0500     508.0000      88.6208       0.0000 
 P245                            J87                             J84                                  18.6500     152.4000     120.3989       0.0000 
 P248                            J250                            J245                                  6.9600     152.4000     110.0673       0.0000 
 P25                             J196                            J194                                  4.3000     508.0000      74.3773       0.0000 
 P251                            J329                            J362                                 11.4900     152.0000     103.7333       0.0000 
 P252                            J363                            J364                                135.4400     305.0000      82.3004       0.0000 
 P256                            J371                            J364                                 55.1700     305.0000      94.8591       0.0000 
 P266                            J250                            J242                                 55.2900     101.6000     107.0558       0.0000 
 P287                            J419                            J420                                 45.1200     254.0000      78.3493       0.0000 
 P291                            J425                            J426                                132.9400     305.0000     107.0800       0.0000 
 P292                            J416                            J427                                 13.5400     305.0000      97.2663       0.0000 
 P293                            J427                            J425                                125.2000     305.0000      92.1591       0.0000 
 P296                            J432                            J433                                231.8700      76.0000      82.9572       0.0000 
 P297                            J411                            J438                                 42.5300     406.0000      73.0000       0.0000 
 P298                            J438                            J434                                 40.1100     305.0000      84.5511       0.0000 
 P301                            J434                            J11                                  45.3100     305.0000      85.1892       0.0000 
 P302                            J11                             J433                                178.2800     305.0000      80.3402       0.0000 
 P307                            J433                            J12                                  47.3000     305.0000      60.5122       0.0000 
 P308                            J426                            J363                                334.5700     305.0000      88.0772       0.0000 
 P310                            J269                            J156                                  9.0000     610.0000      87.2680       0.0000 
 P316                            R1                              J280                                 11.6200     610.0000      70.4519       0.0000 
 P319                            J274                            J269                                 10.5400     610.0000      76.5927       0.0000 
 P320                            J273                            J269                                 11.4700     610.0000      76.5188       0.0000 
 P322                            J280                            J285                                 11.5000     610.0000      89.4331       0.0000 
 P323                            J280                            J276                                 11.4700     610.0000      84.6872       0.0000 
 P337                            J497                            J494                                 20.4900     305.0000       5.6181       0.0000 
 P34                             J179                            J110                                 98.0000     508.0000      78.5060       0.0000 
 P340                            J494                            J496                                 96.2100     305.0000     101.0824       0.0000 
 P341                            J496                            J498                                189.7400     305.0000      94.6355       0.0000 
 P347                            J509                            T4                                  385.5600     305.0000      96.2352       0.0000 
 P348                            J503                            J509                                 42.4700     305.0000      88.7295       0.0000 
 P349                            J503                            J511                                 39.1200     305.0000      97.0124       0.0000 
 P372                            J219                            J86                                   6.4200     101.6000     113.1147       0.0000 
 P374                            J287                            J288                                 15.8300     254.0000      91.9156       0.0000 
 P375                            J288                            J300                                  7.7900     254.0000      75.4894       0.0000 
 P376                            J300                            J299                                  6.6400     254.0000     102.6856       0.0000 
 P378                            J292                            J256                                  6.4700     254.0000     112.4497       0.0000 
 P379                            J287                            J289                                  6.4300     254.0000     101.7753       0.0000 
 P380                            J289                            J290                                  4.7900     254.0000      87.8132       0.0000 
 P381                            J291                            J415                                  5.5300     304.8000     119.2071       0.0000 
 P385                            J498                            J134                                106.5300     305.0000      76.0237       0.0000 
 P397                            J332                            J301                                 13.1600     203.2000      87.4272       0.0000 
 P398                            J301                            J302                                  6.7500     203.2000      91.0504       0.0000 
 P399                            J302                            J307                                  9.7100     203.2000      81.4136       0.0000 
 P40                             J59                             J60                                 143.6400     102.0000     107.9144       0.0000 
 P402                            J307                            J309                                  6.1200     203.2000      89.1549       0.0000 
 P403                            J304                            J306                                  6.8600     152.4000     111.4725       0.0000 
 P409                            J306                            J87                                  26.3800     152.4000      89.8979       0.0000 
 P410                            J323                            J317                                  7.7000     203.2000      85.6677       0.0000 
 P424                            J317                            J384                                 27.8000     203.2000     124.9857       0.0000 
 P44                             J66                             J67                                 247.6500     152.0000     115.1682       0.0000 
 P443                            J13                             J12                                  67.3100     305.0000      85.5760       0.0000 
 P445                            J417                            J421                                  7.8000     254.0000      86.2106       0.0000 
 P465                            J421                            J14                                  18.2000     254.0000      86.5654       0.0000 
 P467                            J422                            J420                                 15.1700     254.0000      96.1541       0.0000 
 P468                            J420                            J287                                 31.2900     254.0000     105.2734       0.0000 
 P484                            J438                            J13                                 336.5700     203.0000      79.9800       0.0000 
 P492                            J86                             J243                                157.3200     101.6000     114.1137       0.0000 
 P524                            J511                            J580                                170.5400     305.0000      96.2278       0.0000 
 P527                            J580                            J497                                149.0400     305.0000      73.1242       0.0000 
 P53                             J384                            J1208                                10.3200     203.0000      87.5607       0.0000 
 P58                             J86                             J84                                 503.9100     102.0000     100.8492       0.0000 
 P596                            J56                             J58                                  76.3900      76.0000     112.8056       0.0000 
 P609                            J57                             J56                                  86.0700      76.0000     111.6336       0.0000 
 P7                              J218                            J211                                 60.2200     508.0000      78.4537       0.0000 
 P752                            J297                            T7                                   70.3600     152.0000     106.1657       0.0000 
 P786                            J197                            J216                                166.2700     203.0000     110.0002       0.0000 
 P787                            J216                            T3                                  127.0800     102.0000     130.1224       0.0000 
 P788                            J216                            J227                                107.8500     152.0000     113.9141       0.0000 
 P791                            J227                            J238                                 82.5000     152.0000     115.9461       0.0000 
 P796                            J256                            J238                                 22.4200     203.0000      89.8762       0.0000 
 P8                              J218                            J212                                 11.3500     406.0000      76.0774       0.0000 
 P815                            J329                            J328                                 50.5200     102.0000      84.3422       0.0000 
 P819                            J1153                           J1157                                 8.0200     203.0000     105.0733       0.0000 
 P83                             J155                            J160                                 15.1400     610.0000      75.6638       0.0000 
 P841                            J297                            J331                                347.8300      76.0000      93.6766       0.0000 
 P850                            J59                             J57                                 241.1300     101.6000     112.5311       0.0000 
 P852                            J58                             J67                                  40.3900     203.0000     105.3809       0.0000 
 P853                            J67                             J53                                 295.6800     203.0000     118.6474       0.0000 
 P86                             J134                            J135                                161.0000     305.0000     110.5000       0.0000 
 P892                            J414                            J13                                  30.3900     254.0000      69.8485       0.0000 
 P9                              J212                            J217                                 49.9500     254.0000      66.7492       0.0000 
 P915                            J1208                           J362                                 10.5800     152.0000      72.7725       0.0000 
 P933                            J371                            J23                                 130.5400     305.0000      87.9469       0.0000 
 P96                             J414                            J417                                 53.7200     254.0000      87.9028       0.0000 
 P97                             J154                            J155                                 24.4100     610.0000      88.8953       0.0000 
 P970                            J1154                           J199                                165.0400     203.0000      87.7951       0.0000 
 P98                             J156                            J154                                174.5300     610.0000      71.7523       0.0000 
 P989                            J1153                           J1155                                91.5900      51.0000      82.0703       0.0000 
 P99                             J110                            J109                                452.3700     508.0000      96.6382       0.0000 
 P990                            J1155                           J1154                                78.8700     102.0000      85.7877       0.0000 
 P991                            J214                            J202                                 20.2500     203.0000      74.3133       0.0000 
 P992                            J202                            J314                                 69.1500     203.0000      80.6408       0.0000 
 P993                            J314                            J199                                 63.5200     203.0000      80.2320       0.0000 
 P994                            J199                            J1157                               115.3900     203.0000      83.0944       0.0000 
 P995                            J1157                           J201                                228.9900     152.0000      82.4996       0.0000 
 P996                            J332                            J201                                 10.2200     203.0000      84.5761       0.0000 
 P997                            J201                            J308                                154.8700     203.0000      96.6174       0.0000 
 P998                            J308                            J204                                107.9800     203.0000      90.6408       0.0000 
 P999                            J203                            J341                                 81.6700     254.0000      68.7046       0.0000 
 1                               J22                             J23                                 130.0000     350.0000      89.0000       0.0000 
 2                               J14                             J422                                 18.0000     300.0000      90.0000       0.0000 

[PUMPS]
 PU1                             J285                            J273                             HEAD 8
 PU2                             J280                            J269                             HEAD 8
 PU4                             J299                            J292                             HEAD 9
 PU6                             J289                            J415                             HEAD 10
 PU8                             J301                            J304                             HEAD 9
 PU10                            J307                            J317                             HEAD 11

[VALVES]

[DEMANDS]
 J511                                  1.175912    DMA2_pat
 J411                                  0.889040    DMA1_pat
 J414                                  0.965865    DMA1_pat
 J415                                  0.000000 
 J416                                  0.000000 
 J417                                  1.291233    DMA1_pat
 J419                                  0.000000 
 J314                                  1.437699    DMA1_pat
 J211                                  1.582595    DMA1_pat
 J212                                  0.606698    DMA1_pat
 J214                                  0.874781    DMA1_pat
 J217                                  1.278520    DMA1_pat
 J218                                  0.089174    DMA1_pat
 J219                                  0.987430    DMA5_pat
 J110                                  0.781167    DMA1_pat
 J420                                  0.000000 
 J421                                  1.037828    DMA1_pat